@<TRIPOS>MOLECULE
caffeine
   24    25     1     0     0
SMALL
NO_CHARGES
@<TRIPOS>ATOM
      1 N1          1.0470    1.6310    0.0000 N.am      1 CAF         0.0000
      2 C2          1.0470    0.2410    0.0000 C.2       1 CAF         0.0000
      3 N3          2.2380   -0.4540    0.0000 N.pl3     1 CAF         0.0000
      4 C4          3.4290    0.2410    0.0000 C.2       1 CAF         0.0000
      5 C5          3.4290    1.6310    0.0000 C.ar      1 CAF         0.0000
      6 C6          2.2380    2.3260    0.0000 C.2       1 CAF         0.0000
      7 N7          4.7740    1.9930    0.0000 N.pl3     1 CAF         0.0000
      8 C8          5.5410    0.8870    0.0000 C.ar      1 CAF         0.0000
      9 N9          4.7430   -0.2700    0.0000 N.pl3     1 CAF         0.0000
     10 O11         0.0000   -0.3550    0.0000 O.2       1 CAF         0.0000
     11 O13         2.2380    3.5570    0.0000 O.2       1 CAF         0.0000
     12 C10        -0.1900    2.3260    0.0000 C.3       1 CAF         0.0000
     13 C14         5.3270    3.3070    0.0000 C.3       1 CAF         0.0000
     14 C12         2.2380   -1.8420    0.0000 C.3       1 CAF         0.0000
     15 H101       -0.1900    3.4260    0.0000 H         1 CAF         0.0000
     16 H102       -0.8590    1.9610   -0.7800 H         1 CAF         0.0000
     17 H103       -0.8590    1.9610    0.7800 H         1 CAF         0.0000
     18 H8          6.6310    0.8870    0.0000 H         1 CAF         0.0000
     19 H141        5.0080    3.7710    0.9300 H         1 CAF         0.0000
     20 H142        5.0080    3.7710   -0.9300 H         1 CAF         0.0000
     21 H143        6.4140    3.3070    0.0000 H         1 CAF         0.0000
     22 H121        1.5810   -2.2230    0.7800 H         1 CAF         0.0000
     23 H122        1.8830   -2.2230   -0.9300 H         1 CAF         0.0000
     24 H123        3.2530   -2.2230    0.1500 H         1 CAF         0.0000
@<TRIPOS>BOND
     1    1    2 am
     2    2    3 1
     3    3    4 1
     4    4    5 ar
     5    5    6 1
     6    6    1 am
     7    5    7 ar
     8    7    8 ar
     9    8    9 ar
    10    9    4 ar
    11    2   10 2
    12    6   11 2
    13    1   12 1
    14    7   13 1
    15    3   14 1
    16   12   15 1
    17   12   16 1
    18   12   17 1
    19    8   18 1
    20   13   19 1
    21   13   20 1
    22   13   21 1
    23   14   22 1
    24   14   23 1
    25   14   24 1
@<TRIPOS>SUBSTRUCTURE
     1 CAF         1 RESIDUE           0 ****  ****    0 ROOT
